
     RDKit          3D

 44 47  0  0  0  0  0  0  0  0999 V2000
   -1.0067   -2.4621    0.7200 C   0  0  0  0  0  0  0  0  0  0  0  0
   -0.6408   -0.9733    0.7228 C   0  0  2  0  0  0  0  0  0  0  0  0
   -1.5907   -0.0147    1.4880 C   0  0  1  0  0  0  0  0  0  0  0  0
   -1.2786    1.3002    0.9531 N   0  0  0  0  0  0  0  0  0  0  0  0
   -1.2580    1.0318   -0.4912 C   0  0  2  0  0  0  0  0  0  0  0  0
   -0.5744    2.1472   -1.2466 C   0  0  0  0  0  0  0  0  0  0  0  0
    0.0413    3.1979   -0.5755 O   0  0  0  0  0  0  0  0  0  0  0  0
   -0.5724    2.1392   -2.5063 O   0  0  0  0  0  0  0  0  0  0  0  0
   -2.6132    0.9838   -0.9439 O   0  0  0  0  0  0  0  0  0  0  0  0
   -3.4261   -0.0017   -0.2906 C   0  0  2  0  0  0  0  0  0  0  0  0
   -4.8906    0.4001   -0.4896 C   0  0  0  0  0  0  0  0  0  0  0  0
   -3.1071   -0.1862    1.2331 C   0  0  1  0  0  0  0  0  0  0  0  0
   -3.6633   -1.4480    1.8502 C   0  0  0  0  0  0  0  0  0  0  0  0
   -3.5133   -1.6656    3.2143 O   0  0  0  0  0  0  0  0  0  0  0  0
   -4.2812   -2.2998    1.1573 O   0  0  0  0  0  0  0  0  0  0  0  0
   -0.5630   -0.3544   -0.6775 C   0  0  1  0  0  0  0  0  0  0  0  0
    1.1231   -0.4001   -1.4504 S   0  0  0  0  0  0  0  0  0  0  0  0
    2.1618    0.4528   -0.2003 C   0  0  0  0  0  0  0  0  0  0  0  0
    3.2032    1.3716   -0.9083 C   0  0  0  0  0  0  0  0  0  0  0  0
    4.4573    0.7536   -0.5608 N   0  0  0  0  0  0  0  0  0  0  0  0
    5.7405    1.1421   -0.5725 C   0  0  0  0  0  0  0  0  0  0  0  0
    6.4832    0.3366    0.2323 N   0  0  0  0  0  0  0  0  0  0  0  0
    5.5649   -0.5311    0.7342 C   0  0  0  0  0  0  0  0  0  0  0  0
    4.3506   -0.2627    0.2329 N   0  0  0  0  0  0  0  0  0  0  0  0
    2.9985   -0.5794    0.6158 C   0  0  0  0  0  0  0  0  0  0  0  0
   -1.1666   -2.8170    1.7597 H   0  0  0  0  0  0  0  0  0  0  0  0
   -0.1689   -3.0445    0.2813 H   0  0  0  0  0  0  0  0  0  0  0  0
   -1.9104   -2.6644    0.1123 H   0  0  0  0  0  0  0  0  0  0  0  0
    0.3445   -0.8963    1.2237 H   0  0  0  0  0  0  0  0  0  0  0  0
   -1.3811   -0.0450    2.5814 H   0  0  0  0  0  0  0  0  0  0  0  0
   -0.3428    1.5915    1.3140 H   0  0  0  0  0  0  0  0  0  0  0  0
   -3.2982   -0.9702   -0.8177 H   0  0  0  0  0  0  0  0  0  0  0  0
   -5.5747   -0.3528   -0.0458 H   0  0  0  0  0  0  0  0  0  0  0  0
   -5.1145    0.4753   -1.5750 H   0  0  0  0  0  0  0  0  0  0  0  0
   -5.0869    1.3879   -0.0208 H   0  0  0  0  0  0  0  0  0  0  0  0
   -3.6018    0.6493    1.7792 H   0  0  0  0  0  0  0  0  0  0  0  0
   -1.1667   -0.9536   -1.3904 H   0  0  0  0  0  0  0  0  0  0  0  0
    1.5568    1.0685    0.4830 H   0  0  0  0  0  0  0  0  0  0  0  0
    3.1627    2.4019   -0.4931 H   0  0  0  0  0  0  0  0  0  0  0  0
    3.0837    1.3995   -2.0124 H   0  0  0  0  0  0  0  0  0  0  0  0
    6.1175    2.0175   -1.0844 H   0  0  0  0  0  0  0  0  0  0  0  0
    5.7715   -1.2778    1.4893 H   0  0  0  0  0  0  0  0  0  0  0  0
    2.7640   -1.6336    0.3552 H   0  0  0  0  0  0  0  0  0  0  0  0
    2.8670   -0.4137    1.7068 H   0  0  0  0  0  0  0  0  0  0  0  0
  1  2  1  0
  2  3  1  0
  3  4  1  0
  4  5  1  0
  5  6  1  6
  6  7  1  0
  6  8  2  0
  5  9  1  0
  9 10  1  0
 10 11  1  0
 10 12  1  0
 12 13  1  0
 13 14  1  0
 13 15  2  0
  2 16  1  0
 16 17  1  0
 17 18  1  0
 18 19  1  0
 19 20  1  0
 20 21  2  0
 21 22  1  0
 22 23  2  0
 23 24  1  0
 24 25  1  0
 12  3  1  0
 25 18  1  0
 16  5  1  0
 24 20  1  0
  1 26  1  0
  1 27  1  0
  1 28  1  0
  2 29  1  1
  3 30  1  1
  4 31  1  0
 10 32  1  6
 11 33  1  0
 11 34  1  0
 11 35  1  0
 12 36  1  1
 16 37  1  6
 18 38  1  0
 19 39  1  0
 19 40  1  0
 21 41  1  0
 23 42  1  0
 25 43  1  0
 25 44  1  0
M  CHG  3   7  -1  14  -1  20   1
M  END
