# created with PyMOL 3.1.0
@<TRIPOS>MOLECULE
GTP
32 34 1                 
SMALL
USER_CHARGES
@<TRIPOS>ATOM
1	  PA	31.797	78.130	-8.651	P.3	1	GTP1	0.000	
2	  PB	29.054	78.847	-9.153	P.3	1	GTP1	0.000	
3	  PG	29.101	81.379	-7.857	P.3	1	GTP1	0.000	
4	 C5'	31.915	77.024	-10.979	C.3	1	GTP1	0.000	
5	 O5'	32.121	76.902	-9.610	O.3	1	GTP1	0.000	
6	 C4'	31.244	75.784	-11.505	C.3	1	GTP1	0.000	
7	 O4'	31.995	74.599	-11.160	O.3	1	GTP1	0.000	
8	 C3'	29.869	75.528	-10.917	C.3	1	GTP1	0.000	
9	 O3'	28.868	76.328	-11.500	O.3	1	GTP1	0.000	
10	 C2'	29.695	74.040	-11.186	C.3	1	GTP1	0.000	
11	 O2'	29.358	73.809	-12.537	O.3	1	GTP1	0.000	
12	 C1'	31.103	73.518	-10.909	C.3	1	GTP1	0.000	
13	  N1	30.055	69.684	-7.666	N.2	1	GTP1	0.000	
14	 O1A	32.410	77.893	-7.297	O.co2	1	GTP1	0.000	
15	 O1B	27.894	77.913	-9.362	O.co2	1	GTP1	0.000	
16	 O1G	30.228	81.625	-8.801	O.co2	1	GTP1	0.000	
17	  C2	29.925	69.740	-9.012	C.2	1	GTP1	0.000	
18	  N2	29.418	68.661	-9.661	N.pl3	1	GTP1	0.000	
19	 O2A	32.183	79.401	-9.310	O.co2	1	GTP1	0.000	
20	 O2B	29.538	79.525	-10.385	O.co2	1	GTP1	0.000	
21	 O2G	29.532	81.530	-6.427	O.co2	1	GTP1	0.000	
22	  N3	30.275	70.834	-9.732	N.2	1	GTP1	0.000	
23	 O3A	30.215	78.001	-8.454	O.3	1	GTP1	0.000	
24	 O3B	28.636	79.874	-8.022	O.3	1	GTP1	0.000	
25	 O3G	27.897	82.198	-8.144	O.co2	1	GTP1	0.000	
26	  C4	30.776	71.898	-9.071	C.2	1	GTP1	0.000	
27	  C5	30.958	71.909	-7.681	C.2	1	GTP1	0.000	
28	  C6	30.560	70.733	-6.947	C.2	1	GTP1	0.000	
29	  O6	30.655	70.648	-5.703	O.2	1	GTP1	0.000	
30	  N7	31.495	73.095	-7.331	N.2	1	GTP1	0.000	
31	  C8	31.613	73.795	-8.439	C.2	1	GTP1	0.000	
32	  N9	31.174	73.082	-9.516	N.2	1	GTP1	0.000	
@<TRIPOS>BOND
1 1 5 1
2 1 14 1
3 1 19 2
4 1 23 1
5 2 15 1
6 2 20 2
7 2 23 1
8 2 24 1
9 3 16 1
10 3 21 1
11 3 24 1
12 3 25 2
13 4 5 1
14 4 6 1
15 6 7 1
16 6 8 1
17 7 12 1
18 8 9 1
19 8 10 1
20 10 11 1
21 10 12 1
22 12 32 1
23 13 17 ar
24 13 28 ar
25 17 18 1
26 17 22 ar
27 22 26 ar
28 26 27 ar
29 26 32 ar
30 27 28 ar
31 27 30 ar
32 28 29 2
33 30 31 ar
34 31 32 ar
@<TRIPOS>SUBSTRUCTURE
1	GTP1	1	GROUP	1 B	GTP
