
     RDKit          3D

 15 15  0  0  0  0  0  0  0  0999 V2000
   -1.4640   -1.2195    0.1503 C   0  0  0  0  0  0  0  0  0  0  0  0
   -1.9458    0.0664   -0.1047 C   0  0  0  0  0  0  0  0  0  0  0  0
   -1.0572    1.1410   -0.1959 C   0  0  0  0  0  0  0  0  0  0  0  0
    0.3209    0.9346   -0.0323 C   0  0  0  0  0  0  0  0  0  0  0  0
    0.8081   -0.3610    0.2247 C   0  0  0  0  0  0  0  0  0  0  0  0
   -0.0926   -1.4337    0.3145 C   0  0  0  0  0  0  0  0  0  0  0  0
    2.2104   -0.5950    0.3951 N   0  0  0  0  0  0  0  0  0  0  0  0
    1.2038    2.0099   -0.1242 O   0  0  0  0  0  0  0  0  0  0  0  0
   -2.1535   -2.0508    0.2207 H   0  0  0  0  0  0  0  0  0  0  0  0
   -3.0081    0.2306   -0.2316 H   0  0  0  0  0  0  0  0  0  0  0  0
   -1.4401    2.1341   -0.3938 H   0  0  0  0  0  0  0  0  0  0  0  0
    0.2686   -2.4352    0.5117 H   0  0  0  0  0  0  0  0  0  0  0  0
    2.5705   -1.5567    0.5857 H   0  0  0  0  0  0  0  0  0  0  0  0
    2.9024    0.1843    0.3334 H   0  0  0  0  0  0  0  0  0  0  0  0
    0.8765    2.9511   -0.3084 H   0  0  0  0  0  0  0  0  0  0  0  0
  1  2  2  0
  2  3  1  0
  3  4  2  0
  4  5  1  0
  5  6  2  0
  5  7  1  0
  4  8  1  0
  6  1  1  0
  1  9  1  0
  2 10  1  0
  3 11  1  0
  6 12  1  0
  7 13  1  0
  7 14  1  0
  8 15  1  0
M  END
