# created with PyMOL 3.1.0
@<TRIPOS>MOLECULE
1fig_renumber
16 17 1                 
SMALL
USER_CHARGES
@<TRIPOS>ATOM
1	  C1	14.428	47.550	9.318	C.3	1	TSA1	0.000	
2	  O1	16.416	46.384	10.072	O.co2	1	TSA1	0.000	
3	  C2	14.465	49.002	9.823	C.3	1	TSA1	0.000	
4	  O2	16.554	47.207	8.149	O.co2	1	TSA1	0.000	
5	  C3	13.793	49.996	9.220	C.3	1	TSA1	0.000	
6	  O3	10.675	47.115	12.323	O.co2	1	TSA1	0.000	
7	  C4	12.869	49.748	8.138	C.3	1	TSA1	0.000	
8	  O4	11.699	48.945	11.856	O.co2	1	TSA1	0.000	
9	  C5	12.549	48.273	7.905	C.3	1	TSA1	0.000	
10	  O5	13.474	50.248	6.920	O.3	1	TSA1	0.000	
11	  C6	13.815	47.493	7.981	C.3	1	TSA1	0.000	
12	  O7	11.528	47.760	8.875	O.3	1	TSA1	0.000	
13	  C8	11.913	47.150	10.225	C.3	1	TSA1	0.000	
14	  C9	13.506	46.670	10.251	C.3	1	TSA1	0.000	
15	 C10	15.885	47.017	9.167	C.2	1	TSA1	0.000	
16	 C11	11.416	47.778	11.567	C.2	1	TSA1	0.000	
@<TRIPOS>BOND
1 1 3 1
2 1 11 1
3 1 14 1
4 1 15 1
5 2 15 ar
6 3 5 1
7 4 15 ar
8 5 7 1
9 6 16 ar
10 7 9 1
11 7 10 1
12 8 16 ar
13 9 11 1
14 9 12 1
15 12 13 1
16 13 14 1
17 13 16 1
@<TRIPOS>SUBSTRUCTURE
1	TSA1	1	GROUP	1 X	TSA
